Version 4
SHEET 1 880 728
WIRE 272 -80 -192 -80
WIRE -192 32 -192 -80
WIRE 272 96 272 -80
WIRE 272 208 272 192
WIRE 160 240 -32 240
WIRE 208 240 208 144
WIRE 208 240 160 240
WIRE 272 240 272 208
WIRE 560 240 272 240
WIRE -32 288 -32 240
WIRE 272 288 272 240
WIRE 560 288 560 240
WIRE 208 336 208 240
WIRE -192 384 -192 112
WIRE -32 384 -32 368
WIRE -32 384 -192 384
WIRE -32 448 -32 384
WIRE 560 464 560 368
WIRE -192 512 -192 384
WIRE -192 704 -192 592
WIRE 272 704 272 384
WIRE 272 704 -192 704
FLAG -32 448 0
FLAG 560 464 0
FLAG 160 240 basis
FLAG 272 208 last
SYMBOL tip127 208 368 M180
SYMATTR InstName U1
SYMBOL voltage -192 16 R0
WINDOW 123 0 0 Left 0
WINDOW 39 0 0 Left 0
SYMATTR InstName V1
SYMATTR Value 15
SYMBOL voltage -192 496 R0
WINDOW 123 0 0 Left 0
WINDOW 39 0 0 Left 0
SYMATTR InstName V2
SYMATTR Value 15
SYMBOL voltage -32 272 R0
WINDOW 123 0 0 Left 0
WINDOW 39 0 0 Left 0
SYMATTR InstName V3
SYMATTR Value SINE(0 5 1k)
SYMBOL res 544 272 R0
SYMATTR InstName R1
SYMATTR Value 1k
SYMBOL tip122 208 96 R0
SYMATTR InstName U2
TEXT -226 710 Left 2 !.tran 0 0.5 0 0.0000001
