Version 4
SHEET 1 3304 2084
WIRE 992 256 528 256
WIRE 1392 256 992 256
WIRE 2112 256 1392 256
WIRE 2544 256 2112 256
WIRE 992 400 992 256
WIRE 1392 400 1392 256
WIRE 992 528 992 480
WIRE 1392 528 1392 480
WIRE 1200 576 1056 576
WIRE 1328 576 1200 576
WIRE 528 592 528 256
WIRE 2544 608 2544 256
WIRE 2112 640 2112 256
WIRE 2480 656 2288 656
WIRE 992 672 992 624
WIRE 1200 672 1200 576
WIRE 1200 672 992 672
WIRE 1392 688 1392 624
WIRE 1872 688 1392 688
WIRE 2048 688 1872 688
WIRE 992 752 992 672
WIRE 1392 752 1392 688
WIRE 928 800 784 800
WIRE 1504 800 1456 800
WIRE 1584 800 1504 800
WIRE 1776 800 1648 800
WIRE 1872 800 1872 688
WIRE 1920 800 1872 800
WIRE 2112 800 2112 736
WIRE 2112 800 1984 800
WIRE 2288 800 2288 656
WIRE 2288 800 2112 800
WIRE 2544 800 2544 704
WIRE 2784 800 2544 800
WIRE 3248 800 2784 800
WIRE 1776 848 1776 800
WIRE 1504 880 1504 800
WIRE 2544 928 2544 800
WIRE 2288 976 2288 800
WIRE 2480 976 2288 976
WIRE 1776 1008 1776 928
WIRE 3248 1008 3248 800
WIRE 2784 1024 2784 800
WIRE 1504 1040 1504 960
WIRE 992 1136 992 848
WIRE 1200 1136 992 1136
WIRE 1392 1136 1392 848
WIRE 1392 1136 1200 1136
WIRE 2112 1168 2112 800
WIRE 2784 1168 2784 1104
WIRE 2928 1168 2784 1168
WIRE 2784 1216 2784 1168
WIRE 528 1264 528 672
WIRE 528 1264 400 1264
WIRE 816 1264 528 1264
WIRE 400 1312 400 1264
WIRE 816 1312 816 1264
WIRE 2784 1376 2784 1296
WIRE 528 1456 528 1264
WIRE 816 1488 816 1392
WIRE 1024 1488 816 1488
WIRE 816 1552 816 1488
WIRE 1200 1552 1200 1136
WIRE 1200 1568 1200 1552
WIRE 1024 1600 1024 1488
WIRE 1024 1600 880 1600
WIRE 1136 1600 1024 1600
WIRE 816 1728 816 1648
WIRE 1200 1728 1200 1648
WIRE 528 1888 528 1536
WIRE 816 1888 816 1808
WIRE 816 1888 528 1888
WIRE 1200 1888 1200 1808
WIRE 1200 1888 816 1888
WIRE 2112 1888 2112 1248
WIRE 2112 1888 1200 1888
WIRE 2544 1888 2544 1024
WIRE 2544 1888 2112 1888
WIRE 3248 1888 3248 1088
WIRE 3248 1888 2544 1888
FLAG 1776 1008 0
FLAG 400 1312 0
FLAG 784 800 UN
IOPIN 784 800 BiDir
FLAG 2928 1168 UN
IOPIN 2928 1168 BiDir
FLAG 1504 1040 0
FLAG 2784 1376 0
SYMBOL voltage 528 1552 M180
WINDOW 123 0 0 Left 0
WINDOW 39 0 0 Left 0
SYMATTR InstName V1
SYMATTR Value -15
SYMBOL res 800 1296 R0
SYMATTR InstName R1
SYMATTR Value 1.33k
SYMBOL npn 880 1552 M0
SYMATTR InstName Q1
SYMATTR Value BC547B
SYMBOL npn 1136 1552 R0
SYMATTR InstName Q2
SYMATTR Value BC547B
SYMBOL res 800 1712 R0
SYMATTR InstName RE3
SYMATTR Value 100
SYMBOL res 1184 1712 R0
SYMATTR InstName RE4
SYMATTR Value 100
SYMBOL npn 1456 752 M0
SYMATTR InstName T2
SYMATTR Value BC547B
SYMBOL npn 928 752 R0
SYMATTR InstName T1
SYMATTR Value BC547B
SYMBOL voltage 1776 832 R0
WINDOW 123 24 124 Left 2
WINDOW 39 0 0 Left 0
SYMATTR Value2 AC 1 180
SYMATTR InstName V3
SYMATTR Value SINE(0 33e-3 10000)
SYMBOL voltage 528 576 R0
SYMATTR InstName V4
SYMATTR Value 15
SYMBOL pnp 1056 624 R180
SYMATTR InstName T3
SYMATTR Value BC557B
SYMBOL pnp 1328 624 M180
SYMATTR InstName T4
SYMATTR Value BC557B
SYMBOL res 976 384 R0
SYMATTR InstName RE1
SYMATTR Value 33
SYMBOL res 1376 384 R0
SYMATTR InstName RE2
SYMATTR Value 33
SYMBOL pnp 2048 736 M180
SYMATTR InstName T5
SYMATTR Value BC557B
SYMBOL res 2096 1152 R0
SYMATTR InstName RA
SYMATTR Value 2.2k
SYMBOL cap 1984 784 R90
WINDOW 0 0 32 VBottom 2
WINDOW 3 32 32 VTop 2
SYMATTR InstName CM
SYMATTR Value 2.63n
SYMBOL tip122 2480 608 R0
SYMATTR InstName U1
SYMBOL tip127 2480 1008 M180
SYMATTR InstName U2
SYMBOL res 2768 1008 R0
SYMATTR InstName R2
SYMATTR Value 39k
SYMBOL res 2768 1200 R0
SYMATTR InstName R3
SYMATTR Value 1k
SYMBOL res 3232 992 R0
SYMATTR InstName R4
SYMATTR Value 8
SYMBOL res 1488 864 R0
SYMATTR InstName R5
SYMATTR Value 1k
SYMBOL cap 1584 816 R270
WINDOW 0 32 32 VTop 2
WINDOW 3 0 32 VBottom 2
SYMATTR InstName C1
SYMATTR Value 8µ
TEXT 1680 1280 Left 2 ;.op
TEXT 1688 1336 Left 2 !.tran 0 10ms 0 0.1u
TEXT 1696 1392 Left 2 !;ac dec 10 1 1Meg
TEXT 1696 1440 Left 2 !.four 10kHz V(n009)
